Version 4
SHEET 1 6152 5600
WIRE -336 -624 -496 -624
WIRE 0 -624 -256 -624
WIRE 176 -624 0 -624
WIRE 224 -624 176 -624
WIRE 416 -624 352 -624
WIRE 464 -624 416 -624
WIRE 688 -624 592 -624
WIRE 1376 -624 688 -624
WIRE 1440 -624 1376 -624
WIRE 1568 -624 1440 -624
WIRE 1696 -624 1568 -624
WIRE -496 -608 -496 -624
WIRE 0 -608 0 -624
WIRE 1440 -608 1440 -624
WIRE 1568 -608 1568 -624
WIRE 1696 -608 1696 -624
WIRE 688 -592 688 -624
WIRE -496 -512 -496 -528
WIRE 0 -512 0 -544
WIRE 288 -512 288 -544
WIRE 528 -512 528 -544
WIRE 528 -512 288 -512
WIRE 688 -512 688 -528
WIRE 688 -512 528 -512
WIRE 1440 -512 1440 -544
WIRE 1568 -512 1568 -544
WIRE 1696 -512 1696 -528
WIRE 528 -496 528 -512
WIRE 688 -480 688 -512
WIRE -352 -464 -496 -464
WIRE 112 -464 -272 -464
WIRE 816 -464 112 -464
WIRE 1008 -464 944 -464
WIRE 1056 -464 1008 -464
WIRE 1184 -464 1136 -464
WIRE 1280 -464 1184 -464
WIRE 1376 -464 1376 -624
WIRE 1376 -464 1280 -464
WIRE -496 -448 -496 -464
WIRE 1280 -432 1280 -464
WIRE 416 -416 416 -624
WIRE 416 -416 368 -416
WIRE 528 -400 528 -416
WIRE 608 -400 528 -400
WIRE 688 -400 688 -416
WIRE 688 -400 608 -400
WIRE 608 -368 608 -400
WIRE 608 -368 432 -368
WIRE -496 -352 -496 -368
WIRE 880 -352 880 -384
WIRE 1120 -352 1120 -384
WIRE 1120 -352 880 -352
WIRE 1280 -352 1280 -368
WIRE 1280 -352 1120 -352
WIRE 1120 -336 1120 -352
WIRE 1280 -320 1280 -352
WIRE 1008 -288 1008 -464
WIRE 1008 -288 576 -288
WIRE 1120 -240 1120 -256
WIRE 1120 -240 640 -240
WIRE 1280 -240 1280 -256
WIRE 1280 -240 1120 -240
WIRE 848 -192 784 -192
WIRE 896 -192 848 -192
WIRE 896 -160 896 -192
WIRE 368 -96 368 -416
WIRE 432 -96 432 -368
WIRE 576 -96 576 -288
WIRE 640 -96 640 -240
WIRE 784 -96 784 -192
WIRE 848 -96 848 -192
WIRE 176 -32 176 -624
WIRE 304 -32 176 -32
WIRE 176 -16 176 -32
WIRE 176 80 176 64
WIRE 304 80 176 80
WIRE 1040 80 896 80
WIRE 1376 80 1376 -464
WIRE 1376 80 1040 80
WIRE 176 96 176 80
WIRE 176 192 176 176
WIRE 304 192 176 192
WIRE 928 192 896 192
WIRE 1040 192 1040 80
WIRE 1040 192 1008 192
WIRE 112 304 112 -464
WIRE 304 304 112 304
WIRE 928 304 896 304
WIRE 1040 304 1040 192
WIRE 1040 304 1008 304
WIRE 112 320 112 304
WIRE 112 416 112 400
WIRE 304 416 112 416
WIRE 928 416 896 416
WIRE 112 432 112 416
WIRE 112 528 112 512
WIRE 304 528 112 528
WIRE 928 528 896 528
WIRE 304 640 48 640
WIRE 928 640 896 640
WIRE 48 656 48 640
WIRE 304 752 48 752
WIRE 1056 752 896 752
WIRE 48 768 48 752
WIRE 304 864 48 864
WIRE 928 864 896 864
WIRE 48 896 48 864
WIRE 608 944 608 912
FLAG -496 -512 0
FLAG -496 -352 0
FLAG 176 272 0
FLAG 608 944 0
FLAG 1696 -512 0
FLAG 1568 -512 0
FLAG 896 -160 0
FLAG 48 656 0
FLAG 48 768 0
FLAG 48 896 0
FLAG 1056 832 0
FLAG 112 608 0
FLAG 0 -512 0
FLAG 1440 -512 0
SYMBOL res 160 176 R0
SYMATTR User1 1%
SYMATTR InstName R1
SYMATTR Value {RA1}
SYMATTR SpiceLine tol=1 pwr=0.1
SYMBOL res 160 80 R0
SYMATTR User1 1%
SYMATTR InstName R2
SYMATTR Value {RA2}
SYMATTR SpiceLine tol=1 pwr=0.1
SYMBOL res 160 -32 R0
SYMATTR User1 1%
SYMATTR InstName R3
SYMATTR Value {RA3}
SYMATTR SpiceLine tol=1 pwr=0.1
SYMBOL res 1024 176 R90
WINDOW 0 0 56 VBottom 2
WINDOW 3 32 56 VTop 2
SYMATTR InstName R7
SYMATTR Value 1Meg
SYMATTR User1 5%
SYMBOL cap 1264 -432 R0
SYMATTR InstName C1
SYMATTR Value 1µ
SYMBOL res 1104 -352 R0
SYMATTR InstName R11
SYMATTR Value 300k
SYMBOL schottky 1264 -256 M180
WINDOW 0 24 64 Left 2
WINDOW 3 24 0 Left 2
SYMATTR InstName D1
SYMATTR Value BAT54
SYMBOL res 1024 288 R90
WINDOW 0 0 56 VBottom 2
WINDOW 3 32 56 VTop 2
SYMATTR InstName R12
SYMATTR Value 1Meg
SYMATTR User1 5%
SYMBOL polcap 1552 -608 R0
WINDOW 3 24 56 Left 2
SYMATTR Value 1m
SYMATTR InstName C2
SYMATTR Description Capacitor
SYMATTR Type cap
SYMATTR SpiceLine Rser=0.05
SYMBOL current 1696 -608 R0
WINDOW 39 23 82 Left 2
WINDOW 3 37 40 Left 2
WINDOW 123 0 0 Left 0
SYMATTR SpiceLine load
SYMATTR Value 2
SYMATTR InstName I1
SYMBOL voltage -496 -464 R0
WINDOW 39 24 50 Left 2
WINDOW 123 0 0 Left 2
SYMATTR InstName V1
SYMATTR Value PULSE(0 15 3 1m 100m 24 48)
SYMBOL voltage -496 -624 R0
WINDOW 39 24 44 Left 2
WINDOW 123 0 0 Left 2
SYMATTR InstName V3
SYMATTR Value PWL(0 0 14.9 0 15 12 20 12 25 0)
SYMBOL SpecialFunctions\\LTC4417 608 352 R0
SYMATTR InstName U1
SYMBOL Infineon_PMOS_L0 288 -608 R270
SYMATTR InstName U2
SYMBOL Infineon_PMOS_L0 528 -608 M270
SYMATTR InstName U3
SYMBOL Infineon_PMOS_L0 880 -448 R270
SYMATTR InstName U4
SYMBOL Infineon_PMOS_L0 1120 -448 M270
SYMATTR InstName U5
SYMBOL cap 672 -592 R0
SYMATTR InstName C3
SYMATTR Value 1µ
SYMBOL res 512 -512 R0
SYMATTR InstName R8
SYMATTR Value 300k
SYMBOL schottky 672 -416 M180
WINDOW 0 24 64 Left 2
WINDOW 3 24 0 Left 2
SYMATTR InstName D2
SYMATTR Value BAT54
SYMBOL res -240 -640 R90
WINDOW 0 0 56 VBottom 2
WINDOW 3 32 56 VTop 2
SYMATTR InstName R9
SYMATTR Value 0.5
SYMBOL res -256 -480 R90
WINDOW 0 0 56 VBottom 2
WINDOW 3 32 56 VTop 2
SYMATTR InstName R10
SYMATTR Value 0.5
SYMBOL res 1040 736 R0
SYMATTR InstName R13
SYMATTR Value 255k
SYMBOL res 96 512 R0
SYMATTR User1 1%
SYMATTR InstName R14
SYMATTR Value {RA1}
SYMATTR SpiceLine tol=1 pwr=0.1
SYMBOL res 96 416 R0
SYMATTR User1 1%
SYMATTR InstName R15
SYMATTR Value {RA2}
SYMATTR SpiceLine tol=1 pwr=0.1
SYMBOL res 96 304 R0
SYMATTR User1 1%
SYMATTR InstName R16
SYMATTR Value {RA3}
SYMATTR SpiceLine tol=1 pwr=0.1
SYMBOL TVSdiode 16 -544 R180
WINDOW 0 32 68 Left 2
WINDOW 3 -129 15 Left 2
SYMATTR InstName D3
SYMATTR Value 15KE33CA
SYMBOL zener 1456 -544 R180
WINDOW 0 24 64 Left 2
WINDOW 3 24 0 Left 2
SYMATTR InstName D4
SYMATTR Value 15KE33A
TEXT -248 -712 Left 2 !.tran 0 30 0 0.5
TEXT -96 -784 Bottom 2 ;LTC4417 - Prioritized PowerPath Controller\nPriority Switching from 12V Main to 14.8V Battery Backup Supply\nInput: 12V Wall, 14.8 Li-Ion, 12V SLA     Output: 2A
TEXT -160 968 Left 2 ;Note:\n  If the simulation model is not found please update with the "Sync Release" command from the "Tools" menu.\n  It remains the customer's responsibility to verify proper and reliable operation in the actual application.\n  Component substitution and printed circuit board layout may significantly affect circuit performance or reliability.\n  Contact your local sales representative for assistance. This circuit is distributed to customers only for use with LTC parts.\n  Copyright © 2013 Linear Technology Inc. All rights reserved.
TEXT -632 -568 Left 2 ;V_MPPT
TEXT -672 -408 Left 2 ;V_AIRCELL
TEXT -248 -744 Left 2 !.include OptiMOS_P2_40V_LTspice.lib
TEXT -248 -688 Left 2 !.options method=gear
TEXT -536 -736 Left 2 !.options gmin=1e-10\n.options abstol=1u\n.options reltol=0.01
TEXT -464 120 Left 2 !.param RA3=1.6Meg RA2=259k RA1=65k
TEXT 560 -848 Left 2 !.model 15KE33A D(IS=1e-16 N=1.05 RS=0.40 BV=33 IBV=1m CJO=650p VJ=0.75 M=0.33 TT=20n)
TEXT 560 -792 Left 2 !.model 15KE33CA D(IS=1e-16 N=1.05 RS=0.40 BV=33 IBV=1m CJO=650p VJ=0.75 M=0.33 TT=20n)
